* File: Top_alu.pex.netlist.pex
* Created: Mon Apr 29 21:42:39 2024
* Program "Calibre xRC"
* Version "v2013.2_18.13"
* Nominal Temperature: 27C
* Circuit Temperature: 27C
* 
.subckt PM_TOP_ALU%N37 6 9 10 12 14 16 19 24 30 33 34 35 38 39 41 44 47 48 49 51
+ 52 53 55 56 58 59 61 62 64 67
c223 56 0 3.361e-19
c224 52 0 1.99735e-19
c225 49 0 1.22663e-19
c226 48 0 5.60944e-19
c227 41 0 1.22843e-19
c228 39 0 2.95504e-19
c229 38 0 3.15468e-19
c230 35 0 9.13377e-21
c231 6 0 3.01276e-19
r232 67 68 1.7
r233 58 59 1.7
r234 56 58 0.658294
r235 55 56 0.0477651
r236 54 55 0.103702
r237 52 54 0.0477651
r238 52 53 1.67651
r239 50 53 0.0477651
r240 50 51 0.103702
r241 48 51 0.0477651
r242 48 49 5.17364
r243 46 49 0.0477651
r244 46 47 0.103702
r245 44 68 0.049635
r246 43 44 1.7
r247 41 47 0.0477651
r248 41 43 0.164195
r249 39 64 25
r250 38 39 1.7
r251 36 59 0.164195
r252 35 36 0.0477651
r253 34 38 0.0414292
r254 34 35 0.298143
r255 32 67 0.141153
r256 32 33 0.0700065
r257 30 67 0.179242
r258 30 31 0.0700065
r259 27 61 30
r260 24 27 0.388606
r261 24 33 0.576108
r262 24 61 10
r263 19 31 0.563479
r264 19 62 10
r265 11 64 1.96825
r266 11 12 5.40464
r267 9 64 2.3619
r268 9 10 5.40464
r269 6 16 39.0551
r270 6 12 31.7323
r271 3 14 29.2913
r272 3 10 36.5165
.ends

.subckt PM_TOP_ALU%N60 6 9 10 12 14 16 19 24 30 33 34 37 38 39 40 43 45 48 51 52
+ 54 55 57 58 60
c240 60 0 1.55533e-19
c241 55 0 1.4028e-19
c242 54 0 1.40149e-19
c243 43 0 1.64686e-19
c244 40 0 1.18754e-19
c245 37 0 1.54038e-20
c246 6 0 3.01276e-19
r247 54 55 1.7
r248 52 54 15.7575
r249 50 52 0.0477651
r250 50 51 0.103702
r251 48 69 0.0930491
r252 47 48 1.7
r253 45 51 0.0477651
r254 45 47 0.388882
r255 44 55 0.164195
r256 43 60 25
r257 42 43 1.7
r258 40 42 0.0309075
r259 39 44 0.0477651
r260 38 40 0.0478503
r261 38 39 0.298143
r262 36 37 1.7
r263 34 69 0.0101983
r264 34 36 0.0190706
r265 32 37 0.141153
r266 32 33 0.0700065
r267 30 37 0.179242
r268 30 31 0.0700065
r269 27 57 30
r270 24 27 0.388606
r271 24 33 0.576108
r272 24 57 10
r273 19 31 0.563479
r274 19 58 10
r275 11 60 1.96825
r276 11 12 5.40464
r277 9 60 2.3619
r278 9 10 5.40464
r279 6 16 39.0551
r280 6 12 31.7323
r281 3 14 29.2913
r282 3 10 36.5165
.ends

.subckt PM_TOP_ALU%GND! 1 4 7 11 16 19 21 25 28 32 37 42 45 47 49 53 58 63 66 68
+ 70 74 77 81 86 89 91 95 98 102 105 109 114 119 122 124 126 130 133 137 142 145
+ 147 151 156 159 161 165 168 172 175 179 182 186 189 193 196 200 203 207 212
+ 215 217 221 226 229 231 235 238 242 245 249 254 257 259 263 266 270 273 277
+ 280 284 287 291 294 298 301 305 308 312 315 319 324 327 329 333 336 340 343
+ 347 350 354 359 362 364 368 371 375 378 382 385 389 392 396 399 403 406 410
+ 413 417 420 424 427 431 436 441 444 446 448 452 455 459 466 469 473 476 480
+ 485 488 490 494 497 501 504 508 511 515 518 522 527 530 532 536 539 543 546
+ 550 553 557 560 564 567 571 576 579 581 585 588 592 595 599 602 606 611 614
+ 616 620 623 627 632 635 637 641 644 648 651 655 660 663 665 669 672 676 679
+ 683 688 693 698 701 705 708 710 712 714 718 723 726 728 732 735 739 742 746
+ 749 753 758 761 765 768 770 774 777 781 784 788 793 796 798 802 805 809 812
+ 816 819 823 826 830 833 837 840 844 847 851 854 858 863 866 868 872 877 880
+ 882 886 889 893 898 903 906 908 910 914 919 922 924 928 933 938 942 945 949
+ 954 957 959 963 966 970 975 978 980 984 987 991 994 998 1001 1005 1008 1012
+ 1015 1019 1022 1026 1031 1034 1036 1040 1045 1048 1050 1054 1059 1062 1064
+ 1068 1073 1078 1082 1085 1089 1094 1099 1104 1107 1109 1111 1113 1117 1122
+ 1129 1132 1136 1141 1146 1151 1154 1158 1163 1166 1170 1172 1174 1178 1182
+ 1189 1197 1209 1253 1267 1281 1282 1290 1300 1313 1320 1332 1337 1340 1355
+ 1377 1380 1394 1418 1422 1432 1436 1448 1475 1497 1506 1531 1583 1609 1610
+ 1614 1617 1620 1623 1626 1629 1632 1750 1751 1752 1753 1754 1755 1756 1757
+ 1758 1759 1760 1761 1762 1763 1764 1765 1766 1767 1768 1769 1770 1771 1772
+ 1773 1774 1776 1777 1778 1779 1780 1781 1782 1783 1784 1785 1786 1787 1788
+ 1789 1791 1792 1793 1794 1795 1796 1798 1799 1800 1801 1803 1804 1805 1806
+ 1807 1809 1811 1812 1813 1814 1815 1816 1818 1820 1821 1822 1823 1824 1825
+ 1827 1828 1829 1831 1833 1834 1836 1838 1839 1840 1841 1842 1844 1845 1846
+ 1847 1849 1850 1851 1852 1853 1855 1857 1859 1860 1862 1863 1864 1865 1867
+ 1868 1869 1870 1871 1872 1874 1875 1877 1879 1880 1882 1883 1884 1885 1886
+ 1887 1888 1889 1891 1892 1893 1894 1895 1896 1897 1898 1899 1900 1901 1903
+ 1904 1905 1906 1907 1908 1909 1910 1911 1912 1913 1914 1915 1916 1917 1918
+ 1919 1920 1921 1922 1923 1925 1926 1927 1928 1929 1930 1931 1932 1933 1934
+ 1935 1936 1937 1938 1940 1941 1942 1944 1945 1946 1966
c6446 1940 0 7.56043e-20
c6447 1937 0 8.75122e-20
c6448 1933 0 8.65979e-20
c6449 1927 0 9.5514e-20
c6450 1918 0 1.7279e-19
c6451 1916 0 1.08093e-19
c6452 1915 0 7.53608e-20
c6453 1908 0 9.5514e-20
c6454 1907 0 4.63946e-20
c6455 1906 0 8.38994e-20
c6456 1905 0 7.53608e-20
c6457 1900 0 1.91219e-19
c6458 1898 0 7.58096e-20
c6459 1894 0 8.33273e-20
c6460 1885 0 8.33273e-20
c6461 1884 0 9.07363e-20
c6462 1879 0 6.72667e-20
c6463 1874 0 1.6703e-19
c6464 1867 0 7.89736e-20
c6465 1850 0 5.42828e-20
c6466 1849 0 8.33273e-20
c6467 1846 0 1.28605e-19
c6468 1840 0 1.49464e-19
c6469 1824 0 7.83858e-20
c6470 1818 0 1.13765e-19
c6471 1816 0 3.13453e-19
c6472 1815 0 6.68935e-20
c6473 1811 0 1.76886e-19
c6474 1801 0 1.43003e-19
c6475 1799 0 9.19011e-20
c6476 1798 0 9.19011e-20
c6477 1785 0 6.72357e-20
c6478 1784 0 1.72596e-19
c6479 1783 0 9.5514e-20
c6480 1782 0 6.68935e-20
c6481 1774 0 1.93461e-19
c6482 1773 0 9.19011e-20
c6483 1768 0 2.01826e-19
c6484 1766 0 7.06761e-20
c6485 1765 0 9.5514e-20
c6486 1763 0 9.19011e-20
c6487 1760 0 8.29851e-20
c6488 1759 0 6.72139e-20
c6489 1757 0 1.91557e-19
c6490 1754 0 8.65979e-20
c6491 1751 0 1.93045e-19
c6492 1609 0 1.15016e-19
c6493 1141 0 1.9129e-19
c6494 1104 0 1.1129e-19
c6495 1045 0 7.43724e-20
c6496 1026 0 1.57916e-19
c6497 998 0 1.73429e-19
c6498 984 0 1.59358e-19
c6499 949 0 1.40122e-19
c6500 933 0 1.16473e-19
c6501 919 0 1.33768e-19
c6502 914 0 1.8944e-19
c6503 863 0 5.608e-20
c6504 851 0 1.60523e-19
c6505 830 0 3.01851e-19
c6506 793 0 1.53706e-19
c6507 788 0 1.86364e-19
c6508 749 0 8.12287e-20
c6509 746 0 1.84664e-19
c6510 723 0 1.81317e-19
c6511 616 0 1.01649e-19
c6512 606 0 4.0806e-20
c6513 602 0 8.21594e-20
c6514 599 0 1.34008e-19
c6515 576 0 6.31697e-20
c6516 557 0 1.53486e-19
c6517 543 0 1.59021e-19
c6518 476 0 1.93646e-19
c6519 473 0 2.15483e-19
c6520 287 0 1.40392e-19
c6521 226 0 9.66427e-20
c6522 102 0 1.4008e-19
c6523 21 0 1.61523e-19
c6524 1 0 0.00291557f
r6525 1632 1966 0.214598
r6526 1631 1632 1.7
r6527 1628 1631 3.76627
r6528 1628 1629 1.7
r6529 1625 1628 6.47837
r6530 1625 1626 1.7
r6531 1622 1625 6.47969
r6532 1622 1623 1.7
r6533 1619 1622 6.47903
r6534 1619 1620 1.7
r6535 1616 1619 6.47837
r6536 1616 1617 1.7
r6537 1613 1616 6.47969
r6538 1613 1614 1.7
r6539 1609 1613 0.618932
r6540 1609 1610 1.7
r6541 1606 1966 42.3395
r6542 1605 1606 1.7
r6543 1602 1605 3.76627
r6544 1602 1603 1.7
r6545 1599 1602 6.47969
r6546 1599 1600 1.7
r6547 1596 1599 6.47837
r6548 1596 1597 1.7
r6549 1593 1596 6.47903
r6550 1593 1594 1.7
r6551 1590 1593 6.47903
r6552 1590 1591 1.7
r6553 1587 1590 6.47903
r6554 1587 1588 1.7
r6555 1584 1610 42.5541
r6556 1583 1587 0.618932
r6557 1583 1584 1.7
r6558 1580 1629 1.20856
r6559 1580 1581 0.0284163
r6560 1578 1623 1.27268
r6561 1578 1579 0.0284163
r6562 1574 1617 1.92554
r6563 1574 1576 0.0284163
r6564 1567 1620 2.17814
r6565 1567 1569 0.0284163
r6566 1565 1614 2.43364
r6567 1565 1566 0.0284163
r6568 1557 1626 2.97769
r6569 1557 1559 0.0284163
r6570 1189 1603 4.74876
r6571 1189 1191 0.0284163
r6572 1182 1594 4.70699
r6573 1182 1184 0.0284163
r6574 1178 1588 3.99098
r6575 1178 1180 0.0284163
r6576 1174 1597 3.6937
r6577 1174 1176 0.0284163
r6578 1170 1591 3.6937
r6579 1170 1172 0.0284163
r6580 1166 1600 3.4858
r6581 1166 1168 0.0284163
r6582 1163 1946 10
r6583 1161 1581 0.0168501
r6584 1161 1163 1.45436
r6585 1158 1945 10
r6586 1156 1579 0.0168501
r6587 1156 1158 1.45241
r6588 1155 1572 0.0284163
r6589 1154 1579 0.0284163
r6590 1154 1155 0.580966
r6591 1151 1944 10
r6592 1149 1576 0.0168501
r6593 1149 1151 1.46893
r6594 1146 1942 10
r6595 1144 1572 0.0168501
r6596 1144 1146 1.45436
r6597 1141 1941 10
r6598 1139 1569 0.0168501
r6599 1139 1141 1.46893
r6600 1136 1940 10
r6601 1134 1566 0.0168501
r6602 1134 1136 1.47573
r6603 1133 1563 0.0284163
r6604 1132 1581 0.0284163
r6605 1132 1133 1.41647
r6606 1129 1938 10
r6607 1127 1563 0.0168501
r6608 1127 1129 1.45436
r6609 1126 1561 0.0284163
r6610 1125 1569 0.0284163
r6611 1125 1126 0.67326
r6612 1122 1937 10
r6613 1120 1561 0.0168501
r6614 1120 1122 1.47573
r6615 1117 1936 10
r6616 1115 1559 0.0168501
r6617 1115 1117 1.46699
r6618 1114 1556 0.0284163
r6619 1113 1563 0.0284163
r6620 1113 1114 0.580966
r6621 1112 1554 0.0284163
r6622 1111 1566 0.0284163
r6623 1111 1112 0.903509
r6624 1110 1551 0.0284163
r6625 1109 1576 0.0284163
r6626 1109 1110 1.43104
r6627 1108 1549 0.0284163
r6628 1107 1572 0.0284163
r6629 1107 1108 1.41647
r6630 1104 1935 10
r6631 1102 1556 0.0168501
r6632 1102 1104 1.45241
r6633 1099 1934 10
r6634 1097 1554 0.0168501
r6635 1097 1099 1.47573
r6636 1094 1933 10
r6637 1092 1551 0.0168501
r6638 1092 1094 1.46699
r6639 1089 1932 10
r6640 1087 1549 0.0168501
r6641 1087 1089 1.45436
r6642 1086 1547 0.0284163
r6643 1085 1561 0.0284163
r6644 1085 1086 0.903509
r6645 1082 1931 10
r6646 1080 1547 0.0168501
r6647 1080 1082 1.47573
r6648 1079 1545 0.0284163
r6649 1078 1549 0.0284163
r6650 1078 1079 0.707263
r6651 1077 1543 0.0284163
r6652 1076 1556 0.0284163
r6653 1076 1077 0.772354
r6654 1073 1930 10
r6655 1071 1545 0.0168501
r6656 1071 1073 1.45436
r6657 1068 1929 10
r6658 1066 1543 0.0168501
r6659 1066 1068 1.46699
r6660 1065 1540 0.0284163
r6661 1064 1554 0.0284163
r6662 1064 1065 1.19205
r6663 1063 1537 0.0284163
r6664 1062 1547 0.0284163
r6665 1062 1063 0.728636
r6666 1059 1928 10
r6667 1057 1540 0.0168501
r6668 1057 1059 1.46893
r6669 1054 1927 10
r6670 1052 1537 0.0168501
r6671 1052 1054 1.89178
r6672 1051 1534 0.0284163
r6673 1050 1559 0.0284163
r6674 1050 1051 2.14705
r6675 1049 1531 0.0284163
r6676 1048 1551 0.0284163
r6677 1048 1049 1.71958
r6678 1045 1926 10
r6679 1043 1534 0.0168501
r6680 1043 1045 1.46699
r6681 1040 1925 10
r6682 1038 1531 0.0168501
r6683 1038 1040 1.46699
r6684 1037 1528 0.0284163
r6685 1036 1545 0.0284163
r6686 1036 1037 1.41647
r6687 1035 1525 0.0284163
r6688 1034 1543 0.0284163
r6689 1034 1035 1.43104
r6690 1031 1923 10
r6691 1029 1528 0.0168501
r6692 1029 1031 1.45436
r6693 1026 1922 10
r6694 1024 1525 0.0168501
r6695 1024 1026 1.46893
r6696 1023 1522 0.0284163
r6697 1022 1540 0.0284163
r6698 1022 1023 1.17553
r6699 1019 1921 10
r6700 1017 1522 0.0168501
r6701 1017 1019 1.46893
r6702 1016 1520 0.0284163
r6703 1015 1528 0.0284163
r6704 1015 1016 0.580966
r6705 1012 1920 10
r6706 1010 1520 0.0168501
r6707 1010 1012 1.45241
r6708 1009 1518 0.0284163
r6709 1008 1537 0.0284163
r6710 1008 1009 2.39673
r6711 1005 1919 10
r6712 1003 1518 0.0168501
r6713 1003 1005 1.46893
r6714 1002 1515 0.0284163
r6715 1001 1531 0.0284163
r6716 1001 1002 2.14705
r6717 998 1918 10
r6718 996 1515 0.0168501
r6719 996 998 1.46699
r6720 995 1513 0.0284163
r6721 994 1518 0.0284163
r6722 994 995 0.809272
r6723 991 1917 10
r6724 989 1513 0.0168501
r6725 989 991 1.47476
r6726 988 1512 0.0284163
r6727 987 1515 0.0284163
r6728 987 988 0.728636
r6729 984 1916 10
r6730 982 1512 0.0168501
r6731 982 984 1.47573
r6732 981 1510 0.0284163
r6733 980 1512 0.0284163
r6734 980 981 0.903509
r6735 979 1508 0.0284163
r6736 978 1534 0.0284163
r6737 978 979 4.01236
r6738 975 1915 10
r6739 973 1510 0.0168501
r6740 973 975 1.47573
r6741 970 1914 10
r6742 968 1508 0.0168501
r6743 968 970 1.47573
r6744 967 1506 0.0284163
r6745 966 1525 0.0284163
r6746 966 967 3.95407
r6747 963 1913 10
r6748 961 1506 0.0168501
r6749 961 963 1.46893
r6750 960 1503 0.0284163
r6751 959 1513 0.0284163
r6752 959 960 1.79244
r6753 958 1501 0.0284163
r6754 957 1522 0.0284163
r6755 957 958 4.0007
r6756 954 1912 10
r6757 952 1503 0.0168501
r6758 952 954 1.47476
r6759 949 1911 10
r6760 947 1501 0.0168501
r6761 947 949 1.47476
r6762 946 1499 0.0284163
r6763 945 1508 0.0284163
r6764 945 946 0.903509
r6765 942 1910 10
r6766 940 1499 0.0168501
r6767 940 942 1.47573
r6768 939 1497 0.0284163
r6769 938 1520 0.0284163
r6770 938 939 4.3077
r6771 937 1495 0.0284163
r6772 936 1503 0.0284163
r6773 936 937 0.714063
r6774 933 1909 10
r6775 931 1497 0.0168501
r6776 931 933 1.45436
r6777 928 1908 10
r6778 926 1495 0.0168501
r6779 926 928 1.46699
r6780 925 1493 0.0284163
r6781 924 1506 0.0284163
r6782 924 925 1.13376
r6783 923 1492 0.0284163
r6784 922 1499 0.0284163
r6785 922 923 0.631485
r6786 919 1907 10
r6787 917 1493 0.0168501
r6788 917 919 1.47573
r6789 914 1906 10
r6790 912 1492 0.0168501
r6791 912 914 1.47573
r6792 911 1490 0.0284163
r6793 910 1501 0.0284163
r6794 910 911 1.79244
r6795 909 1487 0.0284163
r6796 908 1493 0.0284163
r6797 908 909 0.903509
r6798 907 1484 0.0284163
r6799 906 1492 0.0284163
r6800 906 907 0.903509
r6801 903 1905 10
r6802 901 1490 0.0168501
r6803 901 903 1.47476
r6804 898 1904 10
r6805 896 1487 0.0168501
r6806 896 898 1.47573
r6807 893 1903 10
r6808 891 1484 0.0168501
r6809 891 893 1.47573
r6810 890 1481 0.0284163
r6811 889 1497 0.0284163
r6812 889 890 1.41647
r6813 886 1901 10
r6814 884 1481 0.0168501
r6815 884 886 1.45436
r6816 883 1478 0.0284163
r6817 882 1487 0.0284163
r6818 882 883 0.728636
r6819 881 1475 0.0284163
r6820 880 1484 0.0284163
r6821 880 881 0.728636
r6822 877 1900 10
r6823 875 1478 0.0168501
r6824 875 877 1.46699
r6825 872 1899 10
r6826 870 1475 0.0168501
r6827 870 872 1.46699
r6828 869 1473 0.0284163
r6829 868 1510 0.0284163
r6830 868 869 3.54603
r6831 867 1472 0.0284163
r6832 866 1481 0.0284163
r6833 866 867 0.580966
r6834 863 1898 10
r6835 861 1473 0.0168501
r6836 861 863 1.47476
r6837 858 1897 10
r6838 856 1472 0.0168501
r6839 856 858 1.45241
r6840 855 1470 0.0284163
r6841 854 1490 0.0284163
r6842 854 855 1.26977
r6843 851 1896 10
r6844 849 1470 0.0168501
r6845 849 851 1.46893
r6846 848 1467 0.0284163
r6847 847 1472 0.0284163
r6848 847 848 1.49128
r6849 844 1895 10
r6850 842 1467 0.0168501
r6851 842 844 1.46699
r6852 841 1465 0.0284163
r6853 840 1475 0.0284163
r6854 840 841 1.77787
r6855 837 1894 10
r6856 835 1465 0.0168501
r6857 835 837 1.47476
r6858 834 1463 0.0284163
r6859 833 1473 0.0284163
r6860 833 834 1.79244
r6861 830 1893 10
r6862 828 1463 0.0168501
r6863 828 830 1.47476
r6864 827 1461 0.0284163
r6865 826 1495 0.0284163
r6866 826 827 4.775
r6867 823 1892 10
r6868 821 1461 0.0168501
r6869 821 823 1.45241
r6870 820 1460 0.0284163
r6871 819 1470 0.0284163
r6872 819 820 2.48513
r6873 816 1891 10
r6874 814 1460 0.0168501
r6875 814 816 1.47476
r6876 813 1458 0.0284163
r6877 812 1461 0.0284163
r6878 812 813 0.580966
r6879 809 1889 10
r6880 807 1458 0.0168501
r6881 807 809 1.45436
r6882 806 1455 0.0284163
r6883 805 1465 0.0284163
r6884 805 806 1.79244
r6885 802 1888 10
r6886 800 1455 0.0168501
r6887 800 802 1.47476
r6888 799 1452 0.0284163
r6889 798 1478 0.0284163
r6890 798 799 4.46217
r6891 797 1450 0.0284163
r6892 796 1467 0.0284163
r6893 796 797 2.73481
r6894 793 1887 10
r6895 791 1452 0.0168501
r6896 791 793 1.46893
r6897 788 1886 10
r6898 786 1450 0.0168501
r6899 786 788 1.47476
r6900 785 1448 0.0284163
r6901 784 1460 0.0284163
r6902 784 785 1.79244
r6903 781 1885 10
r6904 779 1448 0.0168501
r6905 779 781 1.47476
r6906 778 1446 0.0284163
r6907 777 1458 0.0284163
r6908 777 778 1.41647
r6909 774 1884 10
r6910 772 1446 0.0168501
r6911 772 774 1.45436
r6912 771 1445 0.0284163
r6913 770 1446 0.0284163
r6914 770 771 0.707263
r6915 769 1444 0.0284163
r6916 768 1452 0.0284163
r6917 768 769 1.23577
r6918 765 1883 10
r6919 763 1445 0.0168501
r6920 763 765 1.45436
r6921 762 1442 0.0284163
r6922 761 1463 0.0284163
r6923 761 762 3.86177
r6924 758 1882 10
r6925 756 1444 0.0168501
r6926 756 758 1.45241
r6927 753 1880 15
r6928 751 1442 0.0168501
r6929 751 753 1.4903
r6930 750 1439 0.0284163
r6931 749 1450 0.0284163
r6932 749 750 1.79244
r6933 746 1879 10
r6934 744 1439 0.0168501
r6935 744 746 1.47476
r6936 743 1436 0.0284163
r6937 742 1444 0.0284163
r6938 742 743 0.580966
r6939 739 1877 10
r6940 737 1436 0.0168501
r6941 737 739 1.45436
r6942 736 1434 0.0284163
r6943 735 1442 0.0284163
r6944 735 736 1.14736
r6945 732 1875 15
r6946 730 1434 0.0168501
r6947 730 732 1.4903
r6948 729 1432 0.0284163
r6949 728 1448 0.0284163
r6950 728 729 2.28306
r6951 727 1429 0.0284163
r6952 726 1445 0.0284163
r6953 726 727 1.41647
r6954 723 1874 10
r6955 721 1432 0.0168501
r6956 721 723 1.46699
r6957 718 1872 10
r6958 716 1429 0.0168501
r6959 716 718 1.45436
r6960 715 1427 0.0284163
r6961 714 1429 0.0284163
r6962 714 715 0.580966
r6963 713 1425 0.0284163
r6964 712 1455 0.0284163
r6965 712 713 4.21152
r6966 711 1422 0.0284163
r6967 710 1439 0.0284163
r6968 710 711 1.52528
r6969 709 1420 0.0284163
r6970 708 1436 0.0284163
r6971 708 709 1.41647
r6972 705 1871 10
r6973 703 1427 0.0168501
r6974 703 705 1.45241
r6975 702 1418 0.0284163
r6976 701 1432 0.0284163
r6977 701 702 0.709206
r6978 698 1870 10
r6979 696 1425 0.0168501
r6980 696 698 1.46699
r6981 693 1869 10
r6982 691 1422 0.0168501
r6983 691 693 1.46699
r6984 688 1868 10
r6985 686 1420 0.0168501
r6986 686 688 1.45436
r6987 683 1867 10
r6988 681 1418 0.0168501
r6989 681 683 1.46699
r6990 680 1415 0.0284163
r6991 679 1434 0.0284163
r6992 679 680 1.43201
r6993 676 1865 15
r6994 674 1415 0.0168501
r6995 674 676 1.4903
r6996 673 1412 0.0284163
r6997 672 1422 0.0284163
r6998 672 673 0.71212
r6999 669 1864 10
r7000 667 1412 0.0168501
r7001 667 669 1.46893
r7002 666 1409 0.0284163
r7003 665 1425 0.0284163
r7004 665 666 1.42521
r7005 664 1406 0.0284163
r7006 663 1420 0.0284163
r7007 663 664 1.42716
r7008 660 1863 10
r7009 658 1409 0.0168501
r7010 658 660 1.46893
r7011 655 1862 10
r7012 653 1406 0.0168501
r7013 653 655 1.46699
r7014 652 1404 0.0284163
r7015 651 1415 0.0284163
r7016 651 652 0.995803
r7017 648 1860 15
r7018 646 1404 0.0168501
r7019 646 648 1.4903
r7020 645 1403 0.0284163
r7021 644 1409 0.0284163
r7022 644 645 0.775269
r7023 641 1859 10
r7024 639 1403 0.0168501
r7025 639 641 1.45241
r7026 638 1401 0.0284163
r7027 637 1404 0.0284163
r7028 637 638 1.22799
r7029 636 1398 0.0284163
r7030 635 1403 0.0284163
r7031 635 636 0.580966
r7032 632 1857 15
r7033 630 1401 0.0168501
r7034 630 632 1.4903
r7035 627 1855 10
r7036 625 1398 0.0168501
r7037 625 627 1.45436
r7038 624 1396 0.0284163
r7039 623 1401 0.0284163
r7040 623 624 1.04632
r7041 620 1853 15
r7042 618 1396 0.0168501
r7043 618 620 1.4903
r7044 617 1394 0.0284163
r7045 616 1412 0.0284163
r7046 616 617 3.6597
r7047 615 1392 0.0284163
r7048 614 1398 0.0284163
r7049 614 615 1.41647
r7050 611 1852 10
r7051 609 1394 0.0168501
r7052 609 611 1.46699
r7053 606 1851 10
r7054 604 1392 0.0168501
r7055 604 606 1.45436
r7056 603 1390 0.0284163
r7057 602 1427 0.0284163
r7058 602 603 5.28018
r7059 599 1850 10
r7060 597 1390 0.0168501
r7061 597 599 1.46699
r7062 596 1388 0.0284163
r7063 595 1394 0.0284163
r7064 595 596 0.806357
r7065 592 1849 10
r7066 590 1388 0.0168501
r7067 590 592 1.47476
r7068 589 1386 0.0284163
r7069 588 1396 0.0284163
r7070 588 589 1.43201
r7071 585 1847 15
r7072 583 1386 0.0168501
r7073 583 585 1.4903
r7074 582 1383 0.0284163
r7075 581 1406 0.0284163
r7076 581 582 4.20374
r7077 580 1380 0.0284163
r7078 579 1418 0.0284163
r7079 579 580 5.68045
r7080 576 1846 10
r7081 574 1383 0.0168501
r7082 574 576 1.46893
r7083 571 1845 10
r7084 569 1380 0.0168501
r7085 569 571 1.46893
r7086 568 1377 0.0284163
r7087 567 1390 0.0284163
r7088 567 568 1.17262
r7089 564 1844 10
r7090 562 1377 0.0168501
r7091 562 564 1.46893
r7092 561 1375 0.0284163
r7093 560 1386 0.0284163
r7094 560 561 0.995803
r7095 557 1842 15
r7096 555 1375 0.0168501
r7097 555 557 1.4903
r7098 554 1373 0.0284163
r7099 553 1388 0.0284163
r7100 553 554 1.79244
r7101 550 1841 10
r7102 548 1373 0.0168501
r7103 548 550 1.9018
r7104 547 1370 0.0284163
r7105 546 1375 0.0284163
r7106 546 547 1.01038
r7107 543 1840 10
r7108 541 1370 0.0168501
r7109 541 543 1.46699
r7110 540 1367 0.0284163
r7111 539 1392 0.0284163
r7112 539 540 3.48677
r7113 536 1839 10
r7114 534 1367 0.0168501
r7115 534 536 1.46699
r7116 533 1365 0.0284163
r7117 532 1373 0.0284163
r7118 532 533 2.04018
r7119 531 1363 0.0284163
r7120 530 1370 0.0284163
r7121 530 531 1.54471
r7122 527 1838 10
r7123 525 1365 0.0168501
r7124 525 527 1.45241
r7125 522 1836 15
r7126 520 1363 0.0168501
r7127 520 522 1.4903
r7128 519 1360 0.0284163
r7129 518 1365 0.0284163
r7130 518 519 0.580966
r7131 515 1834 10
r7132 513 1360 0.0168501
r7133 513 515 1.45436
r7134 512 1358 0.0284163
r7135 511 1367 0.0284163
r7136 511 512 2.24906
r7137 508 1833 10
r7138 506 1358 0.0168501
r7139 506 508 1.45241
r7140 505 1357 0.0284163
r7141 504 1363 0.0284163
r7142 504 505 1.14736
r7143 501 1831 15
r7144 499 1357 0.0168501
r7145 499 501 1.4903
r7146 498 1355 0.0284163
r7147 497 1358 0.0284163
r7148 497 498 0.580966
r7149 494 1829 10
r7150 492 1355 0.0168501
r7151 492 494 1.45436
r7152 491 1352 0.0284163
r7153 490 1383 0.0284163
r7154 490 491 5.72514
r7155 489 1350 0.0284163
r7156 488 1360 0.0284163
r7157 488 489 1.41647
r7158 485 1828 10
r7159 483 1352 0.0168501
r7160 483 485 1.46699
r7161 480 1827 10
r7162 478 1350 0.0168501
r7163 478 480 1.45436
r7164 477 1348 0.0284163
r7165 476 1357 0.0284163
r7166 476 477 1.43201
r7167 473 1825 15
r7168 471 1348 0.0168501
r7169 471 473 1.4903
r7170 470 1345 0.0284163
r7171 469 1377 0.0284163
r7172 469 470 5.72514
r7173 466 1824 10
r7174 464 1345 0.0168501
r7175 464 466 1.46699
r7176 463 1343 0.0284163
r7177 462 1350 0.0284163
r7178 462 463 0.771383
r7179 459 1823 10
r7180 457 1343 0.0168501
r7181 457 459 1.45241
r7182 456 1342 0.0284163
r7183 455 1355 0.0284163
r7184 455 456 1.41647
r7185 452 1822 10
r7186 450 1342 0.0168501
r7187 450 452 1.45436
r7188 449 1340 0.0284163
r7189 448 1380 0.0284163
r7190 448 449 7.23779
r7191 447 1337 0.0284163
r7192 446 1352 0.0284163
r7193 446 447 1.42813
r7194 445 1334 0.0284163
r7195 444 1343 0.0284163
r7196 444 445 0.580966
r7197 441 1821 10
r7198 439 1340 0.0168501
r7199 439 441 1.46893
r7200 436 1820 10
r7201 434 1337 0.0168501
r7202 434 436 1.46699
r7203 431 1818 10
r7204 429 1334 0.0168501
r7205 429 431 1.45436
r7206 428 1332 0.0284163
r7207 427 1348 0.0284163
r7208 427 428 0.995803
r7209 424 1816 15
r7210 422 1332 0.0168501
r7211 422 424 1.4903
r7212 421 1330 0.0284163
r7213 420 1345 0.0284163
r7214 420 421 1.42813
r7215 417 1815 10
r7216 415 1330 0.0168501
r7217 415 417 1.46699
r7218 414 1327 0.0284163
r7219 413 1342 0.0284163
r7220 413 414 1.42716
r7221 410 1814 10
r7222 408 1327 0.0168501
r7223 408 410 1.46699
r7224 407 1324 0.0284163
r7225 406 1337 0.0284163
r7226 406 407 1.17262
r7227 403 1813 10
r7228 401 1324 0.0168501
r7229 401 403 1.46893
r7230 400 1322 0.0284163
r7231 399 1334 0.0284163
r7232 399 400 1.41647
r7233 396 1812 10
r7234 394 1322 0.0168501
r7235 394 396 1.45436
r7236 393 1320 0.0284163
r7237 392 1332 0.0284163
r7238 392 393 1.7293
r7239 389 1811 10
r7240 387 1320 0.0168501
r7241 387 389 1.46699
r7242 386 1317 0.0284163
r7243 385 1320 0.0284163
r7244 385 386 0.825788
r7245 382 1809 15
r7246 380 1317 0.0168501
r7247 380 382 1.4903
r7248 379 1315 0.0284163
r7249 378 1317 0.0284163
r7250 378 379 1.14736
r7251 375 1807 15
r7252 373 1315 0.0168501
r7253 373 375 1.4903
r7254 372 1313 0.0284163
r7255 371 1340 0.0284163
r7256 371 372 4.45925
r7257 368 1806 10
r7258 366 1313 0.0168501
r7259 366 368 1.46893
r7260 365 1310 0.0284163
r7261 364 1327 0.0284163
r7262 364 365 3.69856
r7263 363 1307 0.0284163
r7264 362 1322 0.0284163
r7265 362 363 3.19531
r7266 359 1805 10
r7267 357 1310 0.0168501
r7268 357 359 1.46893
r7269 354 1804 10
r7270 352 1307 0.0168501
r7271 352 354 1.46699
r7272 351 1305 0.0284163
r7273 350 1307 0.0284163
r7274 350 351 0.714063
r7275 347 1803 10
r7276 345 1305 0.0168501
r7277 345 347 1.47476
r7278 344 1303 0.0284163
r7279 343 1315 0.0284163
r7280 343 344 1.43201
r7281 340 1801 15
r7282 338 1303 0.0168501
r7283 338 340 1.4903
r7284 337 1300 0.0284163
r7285 336 1313 0.0284163
r7286 336 337 1.17553
r7287 333 1800 10
r7288 331 1300 0.0168501
r7289 331 333 1.46893
r7290 330 1297 0.0284163
r7291 329 1324 0.0284163
r7292 329 330 4.71476
r7293 328 1294 0.0284163
r7294 327 1330 0.0284163
r7295 327 328 5.2559
r7296 324 1799 10
r7297 322 1297 0.0168501
r7298 322 324 1.46699
r7299 319 1798 10
r7300 317 1294 0.0168501
r7301 317 319 1.89178
r7302 316 1292 0.0284163
r7303 315 1303 0.0284163
r7304 315 316 0.995803
r7305 312 1796 15
r7306 310 1292 0.0168501
r7307 310 312 1.4903
r7308 309 1290 0.0284163
r7309 308 1300 0.0284163
r7310 308 309 1.17553
r7311 305 1795 10
r7312 303 1290 0.0168501
r7313 303 305 1.46893
r7314 302 1287 0.0284163
r7315 301 1297 0.0284163
r7316 301 302 1.17262
r7317 298 1794 10
r7318 296 1287 0.0168501
r7319 296 298 1.46893
r7320 295 1284 0.0284163
r7321 294 1305 0.0284163
r7322 294 295 1.79244
r7323 291 1793 10
r7324 289 1284 0.0168501
r7325 289 291 1.47476
r7326 288 1282 0.0284163
r7327 287 1294 0.0284163
r7328 287 288 1.49128
r7329 284 1792 10
r7330 282 1282 0.0168501
r7331 282 284 1.45241
r7332 281 1281 0.0284163
r7333 280 1290 0.0284163
r7334 280 281 0.716978
r7335 277 1791 10
r7336 275 1281 0.0168501
r7337 275 277 1.9018
r7338 274 1279 0.0284163
r7339 273 1282 0.0284163
r7340 273 274 0.580966
r7341 270 1789 10
r7342 268 1279 0.0168501
r7343 268 270 1.45436
r7344 267 1276 0.0284163
r7345 266 1287 0.0284163
r7346 266 267 1.43104
r7347 263 1788 10
r7348 261 1276 0.0168501
r7349 261 263 1.46699
r7350 260 1273 0.0284163
r7351 259 1310 0.0284163
r7352 259 260 4.20957
r7353 258 1270 0.0284163
r7354 257 1284 0.0284163
r7355 257 258 1.52528
r7356 254 1787 10
r7357 252 1273 0.0168501
r7358 252 254 1.46699
r7359 249 1786 10
r7360 247 1270 0.0168501
r7361 247 249 1.46699
r7362 246 1267 0.0284163
r7363 245 1281 0.0284163
r7364 245 246 1.79244
r7365 242 1785 10
r7366 240 1267 0.0168501
r7367 240 242 1.47476
r7368 239 1265 0.0284163
r7369 238 1279 0.0284163
r7370 238 239 1.41647
r7371 235 1784 10
r7372 233 1265 0.0168501
r7373 233 235 1.45436
r7374 232 1263 0.0284163
r7375 231 1292 0.0284163
r7376 231 232 4.50783
r7377 230 1260 0.0284163
r7378 229 1265 0.0284163
r7379 229 230 1.46602
r7380 226 1783 10
r7381 224 1263 0.0168501
r7382 224 226 1.46699
r7383 221 1782 10
r7384 219 1260 0.0168501
r7385 219 221 1.46699
r7386 218 1257 0.0284163
r7387 217 1270 0.0284163
r7388 217 218 3.69856
r7389 216 1255 0.0284163
r7390 215 1263 0.0284163
r7391 215 216 1.47185
r7392 212 1781 10
r7393 210 1257 0.0168501
r7394 210 212 1.46893
r7395 207 1780 10
r7396 205 1255 0.0168501
r7397 205 207 1.47476
r7398 204 1253 0.0284163
r7399 203 1267 0.0284163
r7400 203 204 3.33521
r7401 200 1779 10
r7402 198 1253 0.0168501
r7403 198 200 1.46893
r7404 197 1250 0.0284163
r7405 196 1276 0.0284163
r7406 196 197 4.70893
r7407 193 1778 10
r7408 191 1250 0.0168501
r7409 191 193 1.46893
r7410 190 1248 0.0284163
r7411 189 1257 0.0284163
r7412 189 190 0.775269
r7413 186 1777 10
r7414 184 1248 0.0168501
r7415 184 186 1.45241
r7416 183 1246 0.0284163
r7417 182 1273 0.0284163
r7418 182 183 4.96153
r7419 179 1776 10
r7420 177 1246 0.0168501
r7421 177 179 1.46893
r7422 176 1243 0.0284163
r7423 175 1248 0.0284163
r7424 175 176 0.580966
r7425 172 1774 10
r7426 170 1243 0.0168501
r7427 170 172 1.45436
r7428 169 1240 0.0284163
r7429 168 1255 0.0284163
r7430 168 169 1.79244
r7431 165 1773 10
r7432 163 1240 0.0168501
r7433 163 165 1.47476
r7434 162 1237 0.0284163
r7435 161 1250 0.0284163
r7436 161 162 1.17553
r7437 160 1234 0.0284163
r7438 159 1253 0.0284163
r7439 159 160 1.63603
r7440 156 1772 10
r7441 154 1237 0.0168501
r7442 154 156 1.46893
r7443 151 1771 10
r7444 149 1234 0.0168501
r7445 149 151 1.46893
r7446 148 1231 0.0284163
r7447 147 1246 0.0284163
r7448 147 148 1.43104
r7449 146 1228 0.0284163
r7450 145 1240 0.0284163
r7451 145 146 0.809272
r7452 142 1770 10
r7453 140 1231 0.0168501
r7454 140 142 1.46699
r7455 137 1769 10
r7456 135 1228 0.0168501
r7457 135 137 1.46893
r7458 134 1226 0.0284163
r7459 133 1243 0.0284163
r7460 133 134 1.41647
r7461 130 1768 10
r7462 128 1226 0.0168501
r7463 128 130 1.45436
r7464 127 1224 0.0284163
r7465 126 1237 0.0284163
r7466 126 127 1.43104
r7467 125 1221 0.0284163
r7468 124 1260 0.0284163
r7469 124 125 4.92558
r7470 123 1218 0.0284163
r7471 122 1234 0.0284163
r7472 122 123 1.43104
r7473 119 1767 10
r7474 117 1224 0.0168501
r7475 117 119 1.46699
r7476 114 1766 10
r7477 112 1221 0.0168501
r7478 112 114 1.89178
r7479 109 1765 10
r7480 107 1218 0.0168501
r7481 107 109 1.46699
r7482 106 1215 0.0284163
r7483 105 1228 0.0284163
r7484 105 106 1.17553
r7485 102 1764 10
r7486 100 1215 0.0168501
r7487 100 102 1.46893
r7488 99 1212 0.0284163
r7489 98 1231 0.0284163
r7490 98 99 4.96444
r7491 95 1763 10
r7492 93 1212 0.0168501
r7493 93 95 1.46699
r7494 92 1209 0.0284163
r7495 91 1226 0.0284163
r7496 91 92 4.96055
r7497 90 1206 0.0284163
r7498 89 1215 0.0284163
r7499 89 90 3.90938
r7500 86 1762 10
r7501 84 1209 0.0168501
r7502 84 86 1.46893
r7503 81 1761 10
r7504 79 1206 0.0168501
r7505 79 81 1.46893
r7506 78 1203 0.0284163
r7507 77 1221 0.0284163
r7508 77 78 4.96444
r7509 74 1760 10
r7510 72 1203 0.0168501
r7511 72 74 1.46699
r7512 71 1200 0.0284163
r7513 70 1218 0.0284163
r7514 70 71 5.21703
r7515 69 1197 0.0284163
r7516 68 1209 0.0284163
r7517 68 69 0.71212
r7518 67 1194 0.0284163
r7519 66 1206 0.0284163
r7520 66 67 0.71212
r7521 63 1759 10
r7522 61 1200 0.0168501
r7523 61 63 1.46699
r7524 58 1758 10
r7525 56 1197 0.0168501
r7526 56 58 1.46699
r7527 53 1757 10
r7528 51 1194 0.0168501
r7529 51 53 1.46699
r7530 50 1191 0.0284163
r7531 49 1224 0.0284163
r7532 49 50 5.71931
r7533 48 1187 0.0284163
r7534 47 1212 0.0284163
r7535 47 48 1.42813
r7536 46 1184 0.0284163
r7537 45 1203 0.0284163
r7538 45 46 0.709206
r7539 42 1756 10
r7540 40 1191 0.0168501
r7541 40 42 1.46893
r7542 37 1755 10
r7543 35 1187 0.0168501